# Model parameters
# Continuous equation parameters
 &PARM01
 viscAh=2.E2,
 viscAr=1.E-5,
 no_slip_sides=.FALSE.,
 no_slip_bottom=.FALSE.,
 bottomDragQuadratic=2.0E-3,
 bottomDragLinear=0.0,
 diffKhT=1000.,
 diffKrT=1.E-5,
 ivdc_kappa=1.,
 implicitDiffusion=.TRUE.,
 eosType='LINEAR',
 tRefFile='tRef.bin',
 tAlpha=2.E-4,
 sBeta=0.,
 rhoNil=999.8,
 gravity=9.81,
 tempStepping=.TRUE.,
 exactConserv=.TRUE.,
 saltStepping=.FALSE.,
# globalFiles=.TRUE.,
 f0=1.E-4,
 beta=1.E-11,
 rhoConst=1000.,
# gBaro=9.81,
 rigidLid=.FALSE.,
 implicitFreeSurface=.TRUE.,
# momAdvection=.FALSE.,
 &

# Elliptic solver parameters
 &PARM02
 cg2dTargetResidual=1.E-7,
 cg2dMaxIters=1000,
 &

# Time stepping parameters
 &PARM03
 startTime=0.,
 deltaT=600.,
#-checkpoint every 150 days
 pChkptFreq=12960000,
 chkptFreq=12960000,
#-dump every 1 day
 dumpFreq=432000.0
#-monitor every 1 day
 monitorFreq=86400.,
 monitorSelect=2,
#-Relaxation time scale is 30 days
 tauThetaClimRelax=2592000.,
#-Run for 6000 days
 endTime=518400000.0,
 &

# Gridding parameters
 &PARM04
 usingCartesianGrid=.TRUE.,
 delX=480*10.04184E3,
 delY=480*10.04184E3,
 xgOrigin=0.0,
 ygOrigin=0.0,
 delRFile='dz.bin'
 &

# Input datasets
 &PARM05
 bathyFile='bathy.bin'
 zonalWindFile='windx_cosy.bin',
 thetaClimFile='SST_relax.bin',
 meridWindFile=,
 &
