# Model parameters
# Continuous equation parameters
 &PARM01
 viscAh=2.E2,
 viscAr=1.E-2,
 no_slip_sides=.TRUE.,
 no_slip_bottom=.FALSE.,
 diffKhT=1000.,
 diffKrT=1.E-5,
 ivdc_kappa=1.,
 implicitDiffusion=.TRUE.,
 eosType='LINEAR',
 tRef=30.,27.,24.,21.,18.,15.,13.,11.,9.,7.,6.,5.,4.,3.,2.,
 tAlpha=2.E-4,
 sBeta=0.,
 rhoNil=999.8,
 gravity=9.81,
 tempStepping=.TRUE.,
 exactConserv=.TRUE.,
 saltStepping=.FALSE.,
# globalFiles=.TRUE.,
 f0=1.E-4,
 beta=1.E-11,
 rhoConst=1000.,
# gBaro=9.81,
 rigidLid=.FALSE.,
 implicitFreeSurface=.TRUE.,
# momAdvection=.FALSE.,
 &

# Elliptic solver parameters
 &PARM02
 cg2dTargetResidual=1.E-7,
 cg2dMaxIters=1000,
 &

# Time stepping parameters
 &PARM03
 startTime=1036800000.,
 deltaT=600.,
#-checkpoint every 150 days
 pChkptFreq=12960000,
 chkptFreq=12960000,
#-dump every 10 days
 dumpFreq=864000.,
#-monitor every 30 days
 monitorFreq=2592000.,
 monitorSelect=2,
#-Relaxation time scale is 30 days
 tauThetaClimRelax=2592000.,
#-Run for 3000 days
 endTime=1296000000.,
 &
Ri
# Gridding parameters
 &PARM04
 usingCartesianGrid=.TRUE.,
 delX=480*10.04184E3,
 delY=480*10.04184E3,
 xgOrigin=0.0,
 ygOrigin=0.0,
 delR=50.,60.,70.,80.,90.,100.,110.,120.,130.,140.,150.,160.,170.,180.,190.,
 &

# Input datasets
 &PARM05
 bathyFile='bathy.bin'
 zonalWindFile='windx_cosy.bin',
 thetaClimFile='SST_relax.bin',
 meridWindFile=,
 &
